10
  0. Vibration mode, 376.71 cm-1, Au
N   1.395248 -0.000000  0.000000 -0.00000  0.00000 -0.00000
C   0.691714  1.121767  0.000000 -0.00000  0.00000  0.39010
C   0.691714 -1.121767  0.000000  0.00000  0.00000 -0.39010
N  -1.395248  0.000000  0.000000 -0.00000 -0.00000 -0.00000
C  -0.691714 -1.121767  0.000000 -0.00000 -0.00000  0.39010
C  -0.691714  1.121767  0.000000 -0.00000 -0.00000 -0.39010
H   1.242824  2.046926 -0.000000 -0.00000  0.00000  0.31280
H   1.242824 -2.046926  0.000000  0.00000  0.00000 -0.31280
H  -1.242824 -2.046926 -0.000000  0.00000 -0.00000  0.31280
H  -1.242824  2.046926  0.000000  0.00000 -0.00000 -0.31280
10
  1. Vibration mode, 449.57 cm-1, B1u
N   1.395248 -0.000000  0.000000  0.00000 -0.00000  0.56600
C   0.691714  1.121767  0.000000 -0.00000 -0.00000 -0.26520
C   0.691714 -1.121767  0.000000  0.00000 -0.00000 -0.26520
N  -1.395248  0.000000  0.000000 -0.00000 -0.00000  0.56600
C  -0.691714 -1.121767  0.000000  0.00000 -0.00000 -0.26520
C  -0.691714  1.121767  0.000000 -0.00000 -0.00000 -0.26520
H   1.242824  2.046926 -0.000000 -0.00000  0.00000 -0.13960
H   1.242824 -2.046926  0.000000  0.00000 -0.00000 -0.13960
H  -1.242824 -2.046926 -0.000000 -0.00000 -0.00000 -0.13960
H  -1.242824  2.046926  0.000000  0.00000 -0.00000 -0.13960
10
  2. Vibration mode, 618.13 cm-1, Ag
N   1.395248 -0.000000  0.000000  0.56860 -0.00000 -0.00000
C   0.691714  1.121767  0.000000  0.04380 -0.27400  0.00000
C   0.691714 -1.121767  0.000000  0.04380  0.27400 -0.00000
N  -1.395248  0.000000  0.000000 -0.56860  0.00000 -0.00000
C  -0.691714 -1.121767  0.000000 -0.04380  0.27400 -0.00000
C  -0.691714  1.121767  0.000000 -0.04380 -0.27400  0.00000
H   1.242824  2.046926 -0.000000 -0.10600 -0.01040  0.00000
H   1.242824 -2.046926  0.000000 -0.10600  0.01040 -0.00000
H  -1.242824 -2.046926 -0.000000  0.10600  0.01040 -0.00000
H  -1.242824  2.046926  0.000000  0.10600 -0.01040  0.00000
10
  3. Vibration mode, 731.67 cm-1, B1g
N   1.395248 -0.000000  0.000000  0.00000  0.20610  0.00000
C   0.691714  1.121767  0.000000  0.33600  0.31350  0.00000
C   0.691714 -1.121767  0.000000 -0.33600  0.31350 -0.00000
N  -1.395248  0.000000  0.000000 -0.00000 -0.20610 -0.00000
C  -0.691714 -1.121767  0.000000 -0.33600 -0.31350 -0.00000
C  -0.691714  1.121767  0.000000  0.33600 -0.31350  0.00000
H   1.242824  2.046926 -0.000000  0.06000  0.11550  0.00000
H   1.242824 -2.046926  0.000000 -0.06000  0.11550 -0.00000
H  -1.242824 -2.046926 -0.000000 -0.06000 -0.11550 -0.00000
H  -1.242824  2.046926  0.000000  0.06000 -0.11550  0.00000
10
  4. Vibration mode, 804.29 cm-1, B2g
N   1.395248 -0.000000  0.000000  0.00000 -0.00000  0.41440
C   0.691714  1.121767  0.000000 -0.00000 -0.00000 -0.32690
C   0.691714 -1.121767  0.000000  0.00000 -0.00000 -0.32690
N  -1.395248  0.000000  0.000000  0.00000 -0.00000 -0.41440
C  -0.691714 -1.121767  0.000000  0.00000  0.00000  0.32690
C  -0.691714  1.121767  0.000000 -0.00000  0.00000  0.32690
H   1.242824  2.046926 -0.000000 -0.00000 -0.00000 -0.23920
H   1.242824 -2.046926  0.000000  0.00000  0.00000 -0.23920
H  -1.242824 -2.046926 -0.000000 -0.00000  0.00000  0.23920
H  -1.242824  2.046926  0.000000 -0.00000  0.00000  0.23920
10
  5. Vibration mode, 840.89 cm-1, B1u
N   1.395248 -0.000000  0.000000  0.00000 -0.00000  0.06870
C   0.691714  1.121767  0.000000  0.00000  0.00000 -0.17240
C   0.691714 -1.121767  0.000000 -0.00000  0.00000 -0.17240
N  -1.395248  0.000000  0.000000 -0.00000  0.00000  0.06870
C  -0.691714 -1.121767  0.000000 -0.00000 -0.00000 -0.17240
C  -0.691714  1.121767  0.000000  0.00000 -0.00000 -0.17240
H   1.242824  2.046926 -0.000000  0.00000 -0.00000  0.46680
H   1.242824 -2.046926  0.000000 -0.00000  0.00000  0.46680
H  -1.242824 -2.046926 -0.000000  0.00000  0.00000  0.46680
H  -1.242824  2.046926  0.000000 -0.00000 -0.00000  0.46680
10
  6. Vibration mode, 985.58 cm-1, B3g
N   1.395248 -0.000000  0.000000  0.00000 -0.00000 -0.00000
C   0.691714  1.121767  0.000000  0.00000  0.00000  0.23370
C   0.691714 -1.121767  0.000000 -0.00000  0.00000 -0.23370
N  -1.395248  0.000000  0.000000 -0.00000 -0.00000  0.00000
C  -0.691714 -1.121767  0.000000 -0.00000 -0.00000 -0.23370
C  -0.691714  1.121767  0.000000 -0.00000  0.00000  0.23370
H   1.242824  2.046926 -0.000000  0.00000 -0.00000 -0.44200
H   1.242824 -2.046926  0.000000 -0.00000 -0.00000  0.44200
H  -1.242824 -2.046926 -0.000000 -0.00000 -0.00000  0.44200
H  -1.242824  2.046926  0.000000 -0.00000 -0.00000 -0.44200
10
  7. Vibration mode, 1033.87 cm-1, B2g
N   1.395248 -0.000000  0.000000 -0.00000 -0.00000  0.05110
C   0.691714  1.121767  0.000000 -0.00000 -0.00000 -0.27300
C   0.691714 -1.121767  0.000000 -0.00000  0.00000 -0.27300
N  -1.395248  0.000000  0.000000  0.00000  0.00000 -0.05110
C  -0.691714 -1.121767  0.000000  0.00000  0.00000  0.27300
C  -0.691714  1.121767  0.000000 -0.00000 -0.00000  0.27300
H   1.242824  2.046926 -0.000000 -0.00000 -0.00000  0.41730
H   1.242824 -2.046926  0.000000 -0.00000  0.00000  0.41730
H  -1.242824 -2.046926 -0.000000  0.00000  0.00000 -0.41730
H  -1.242824  2.046926  0.000000 -0.00000 -0.00000 -0.41730
10
  8. Vibration mode, 1050.79 cm-1, Au
N   1.395248 -0.000000  0.000000 -0.00000 -0.00000 -0.00000
C   0.691714  1.121767  0.000000 -0.00000 -0.00000  0.31280
C   0.691714 -1.121767  0.000000 -0.00000  0.00000 -0.31280
N  -1.395248  0.000000  0.000000  0.00000 -0.00000  0.00000
C  -0.691714 -1.121767  0.000000  0.00000  0.00000  0.31280
C  -0.691714  1.121767  0.000000  0.00000 -0.00000 -0.31280
H   1.242824  2.046926 -0.000000 -0.00000 -0.00000 -0.39010
H   1.242824 -2.046926  0.000000 -0.00000  0.00000  0.39010
H  -1.242824 -2.046926 -0.000000  0.00000  0.00000 -0.39010
H  -1.242824  2.046926  0.000000  0.00000 -0.00000  0.39010
10
  9. Vibration mode, 1060.18 cm-1, B3u
N   1.395248 -0.000000  0.000000  0.51700 -0.00000 -0.00000
C   0.691714  1.121767  0.000000 -0.23000 -0.18360  0.00000
C   0.691714 -1.121767  0.000000 -0.23000  0.18360  0.00000
N  -1.395248  0.000000  0.000000  0.51700 -0.00000  0.00000
C  -0.691714 -1.121767  0.000000 -0.23000 -0.18360 -0.00000
C  -0.691714  1.121767  0.000000 -0.23000  0.18360 -0.00000
H   1.242824  2.046926 -0.000000 -0.17000  0.00550 -0.00000
H   1.242824 -2.046926  0.000000 -0.17000 -0.00550 -0.00000
H  -1.242824 -2.046926 -0.000000 -0.17000  0.00550  0.00000
H  -1.242824  2.046926  0.000000 -0.17000 -0.00550  0.00000
10
 10. Vibration mode, 1069.15 cm-1, Ag
N   1.395248 -0.000000  0.000000  0.35140  0.00000  0.00000
C   0.691714  1.121767  0.000000  0.21770  0.33350 -0.00000
C   0.691714 -1.121767  0.000000  0.21770 -0.33350 -0.00000
N  -1.395248  0.000000  0.000000 -0.35140  0.00000  0.00000
C  -0.691714 -1.121767  0.000000 -0.21770 -0.33350  0.00000
C  -0.691714  1.121767  0.000000 -0.21770  0.33350 -0.00000
H   1.242824  2.046926 -0.000000  0.16610  0.04500 -0.00000
H   1.242824 -2.046926  0.000000  0.16610 -0.04500  0.00000
H  -1.242824 -2.046926 -0.000000 -0.16610 -0.04500 -0.00000
H  -1.242824  2.046926  0.000000 -0.16610  0.04500  0.00000
10
 11. Vibration mode, 1113.5 cm-1, B2u
N   1.395248 -0.000000  0.000000  0.00000  0.14120 -0.00000
C   0.691714  1.121767  0.000000 -0.30550 -0.11010 -0.00000
C   0.691714 -1.121767  0.000000  0.30550 -0.11010 -0.00000
N  -1.395248  0.000000  0.000000 -0.00000  0.14120  0.00000
C  -0.691714 -1.121767  0.000000 -0.30550 -0.11010  0.00000
C  -0.691714  1.121767  0.000000  0.30550 -0.11010  0.00000
H   1.242824  2.046926 -0.000000 -0.34770  0.11700 -0.00000
H   1.242824 -2.046926  0.000000  0.34770  0.11700  0.00000
H  -1.242824 -2.046926 -0.000000 -0.34770  0.11700 -0.00000
H  -1.242824  2.046926  0.000000  0.34770  0.11700 -0.00000
10
 12. Vibration mode, 1168.85 cm-1, B2u
N   1.395248 -0.000000  0.000000  0.00000  0.47520  0.00000
C   0.691714  1.121767  0.000000  0.26000 -0.25880 -0.00000
C   0.691714 -1.121767  0.000000 -0.26000 -0.25880 -0.00000
N  -1.395248  0.000000  0.000000  0.00000  0.47520  0.00000
C  -0.691714 -1.121767  0.000000  0.26000 -0.25880  0.00000
C  -0.691714  1.121767  0.000000 -0.26000 -0.25880  0.00000
H   1.242824  2.046926 -0.000000 -0.04700  0.00730 -0.00000
H   1.242824 -2.046926  0.000000  0.04700  0.00730 -0.00000
H  -1.242824 -2.046926 -0.000000 -0.04700  0.00730  0.00000
H  -1.242824  2.046926  0.000000  0.04700  0.00730 -0.00000
10
 13. Vibration mode, 1188.33 cm-1, B3u
N   1.395248 -0.000000  0.000000  0.10410 -0.00000 -0.00000
C   0.691714  1.121767  0.000000  0.01130  0.35720  0.00000
C   0.691714 -1.121767  0.000000  0.01130 -0.35720  0.00000
N  -1.395248  0.000000  0.000000  0.10410 -0.00000  0.00000
C  -0.691714 -1.121767  0.000000  0.01130  0.35720 -0.00000
C  -0.691714  1.121767  0.000000  0.01130 -0.35720 -0.00000
H   1.242824  2.046926 -0.000000 -0.23330  0.25000 -0.00000
H   1.242824 -2.046926  0.000000 -0.23330 -0.25000 -0.00000
H  -1.242824 -2.046926 -0.000000 -0.23330  0.25000  0.00000
H  -1.242824  2.046926  0.000000 -0.23330 -0.25000  0.00000
10
 14. Vibration mode, 1274.83 cm-1, Ag
N   1.395248 -0.000000  0.000000  0.06750 -0.00000 -0.00000
C   0.691714  1.121767  0.000000 -0.11080  0.18420 -0.00000
C   0.691714 -1.121767  0.000000 -0.11080 -0.18420 -0.00000
N  -1.395248  0.000000  0.000000 -0.06750  0.00000 -0.00000
C  -0.691714 -1.121767  0.000000  0.11080 -0.18420  0.00000
C  -0.691714  1.121767  0.000000  0.11080  0.18420  0.00000
H   1.242824  2.046926 -0.000000 -0.36650  0.25930  0.00000
H   1.242824 -2.046926  0.000000 -0.36650 -0.25930  0.00000
H  -1.242824 -2.046926 -0.000000  0.36650 -0.25930 -0.00000
H  -1.242824  2.046926  0.000000  0.36650  0.25930 -0.00000
10
 15. Vibration mode, 1396.18 cm-1, B1g
N   1.395248 -0.000000  0.000000 -0.00000  0.25890  0.00000
C   0.691714  1.121767  0.000000 -0.09100  0.02720  0.00000
C   0.691714 -1.121767  0.000000  0.09100  0.02720 -0.00000
N  -1.395248  0.000000  0.000000 -0.00000 -0.25890 -0.00000
C  -0.691714 -1.121767  0.000000  0.09100 -0.02720 -0.00000
C  -0.691714  1.121767  0.000000 -0.09100 -0.02720  0.00000
H   1.242824  2.046926 -0.000000  0.38600 -0.24120  0.00000
H   1.242824 -2.046926  0.000000 -0.38600 -0.24120  0.00000
H  -1.242824 -2.046926 -0.000000 -0.38600  0.24120  0.00000
H  -1.242824  2.046926  0.000000  0.38600  0.24120 -0.00000
10
 16. Vibration mode, 1471.93 cm-1, B2u
N   1.395248 -0.000000  0.000000  0.00000  0.28170  0.00000
C   0.691714  1.121767  0.000000 -0.28530 -0.08210  0.00000
C   0.691714 -1.121767  0.000000  0.28530 -0.08210 -0.00000
N  -1.395248  0.000000  0.000000  0.00000  0.28170 -0.00000
C  -0.691714 -1.121767  0.000000 -0.28530 -0.08210 -0.00000
C  -0.691714  1.121767  0.000000  0.28530 -0.08210 -0.00000
H   1.242824  2.046926 -0.000000  0.25270 -0.24150 -0.00000
H   1.242824 -2.046926  0.000000 -0.25270 -0.24150 -0.00000
H  -1.242824 -2.046926 -0.000000  0.25270 -0.24150  0.00000
H  -1.242824  2.046926  0.000000 -0.25270 -0.24150 -0.00000
10
 17. Vibration mode, 1545.27 cm-1, B3u
N   1.395248 -0.000000  0.000000  0.21440  0.00000  0.00000
C   0.691714  1.121767  0.000000 -0.20420  0.27090  0.00000
C   0.691714 -1.121767  0.000000 -0.20420 -0.27090  0.00000
N  -1.395248  0.000000  0.000000  0.21440 -0.00000  0.00000
C  -0.691714 -1.121767  0.000000 -0.20420  0.27090  0.00000
C  -0.691714  1.121767  0.000000 -0.20420 -0.27090  0.00000
H   1.242824  2.046926 -0.000000  0.30480 -0.13790  0.00000
H   1.242824 -2.046926  0.000000  0.30480  0.13790  0.00000
H  -1.242824 -2.046926 -0.000000  0.30480 -0.13790  0.00000
H  -1.242824  2.046926  0.000000  0.30480  0.13790 -0.00000
10
 18. Vibration mode, 1632.83 cm-1, B1g
N   1.395248 -0.000000  0.000000 -0.00000  0.47030 -0.00000
C   0.691714  1.121767  0.000000  0.17000 -0.31780 -0.00000
C   0.691714 -1.121767  0.000000 -0.17000 -0.31780  0.00000
N  -1.395248  0.000000  0.000000  0.00000 -0.47030  0.00000
C  -0.691714 -1.121767  0.000000 -0.17000  0.31780  0.00000
C  -0.691714  1.121767  0.000000  0.17000  0.31780 -0.00000
H   1.242824  2.046926 -0.000000 -0.09700 -0.00310 -0.00000
H   1.242824 -2.046926  0.000000  0.09700 -0.00310 -0.00000
H  -1.242824 -2.046926 -0.000000  0.09700  0.00310 -0.00000
H  -1.242824  2.046926  0.000000 -0.09700  0.00310  0.00000
10
 19. Vibration mode, 1675.86 cm-1, Ag
N   1.395248 -0.000000  0.000000  0.22040  0.00000 -0.00000
C   0.691714  1.121767  0.000000 -0.42530  0.11980 -0.00000
C   0.691714 -1.121767  0.000000 -0.42530 -0.11980  0.00000
N  -1.395248  0.000000  0.000000 -0.22040 -0.00000  0.00000
C  -0.691714 -1.121767  0.000000  0.42530 -0.11980 -0.00000
C  -0.691714  1.121767  0.000000  0.42530  0.11980 -0.00000
H   1.242824  2.046926 -0.000000  0.11850 -0.12800 -0.00000
H   1.242824 -2.046926  0.000000  0.11850  0.12800  0.00000
H  -1.242824 -2.046926 -0.000000 -0.11850  0.12800  0.00000
H  -1.242824  2.046926  0.000000 -0.11850 -0.12800  0.00000
10
 20. Vibration mode, 3209.25 cm-1, B1g
N   1.395248 -0.000000  0.000000 -0.00000  0.00090 -0.00000
C   0.691714  1.121767  0.000000  0.07360  0.11970  0.00000
C   0.691714 -1.121767  0.000000 -0.07360  0.11970 -0.00000
N  -1.395248  0.000000  0.000000 -0.00000 -0.00090  0.00000
C  -0.691714 -1.121767  0.000000 -0.07360 -0.11970 -0.00000
C  -0.691714  1.121767  0.000000  0.07360 -0.11970  0.00000
H   1.242824  2.046926 -0.000000 -0.24790 -0.41090  0.00000
H   1.242824 -2.046926  0.000000  0.24790 -0.41090  0.00000
H  -1.242824 -2.046926 -0.000000  0.24790  0.41090  0.00000
H  -1.242824  2.046926  0.000000 -0.24790  0.41090 -0.00000
10
 21. Vibration mode, 3210.94 cm-1, B3u
N   1.395248 -0.000000  0.000000  0.00100  0.00000 -0.00000
C   0.691714  1.121767  0.000000 -0.07200 -0.12400  0.00000
C   0.691714 -1.121767  0.000000 -0.07200  0.12400 -0.00000
N  -1.395248  0.000000  0.000000  0.00100 -0.00000 -0.00000
C  -0.691714 -1.121767  0.000000 -0.07200 -0.12400  0.00000
C  -0.691714  1.121767  0.000000 -0.07200  0.12400  0.00000
H   1.242824  2.046926 -0.000000  0.24600  0.41040 -0.00000
H   1.242824 -2.046926  0.000000  0.24600 -0.41040 -0.00000
H  -1.242824 -2.046926 -0.000000  0.24600  0.41040  0.00000
H  -1.242824  2.046926  0.000000  0.24600 -0.41040 -0.00000
10
 22. Vibration mode, 3234.19 cm-1, B2u
N   1.395248 -0.000000  0.000000  0.00000  0.00270  0.00000
C   0.691714  1.121767  0.000000 -0.08630 -0.11930  0.00000
C   0.691714 -1.121767  0.000000  0.08630 -0.11930 -0.00000
N  -1.395248  0.000000  0.000000 -0.00000  0.00270 -0.00000
C  -0.691714 -1.121767  0.000000 -0.08630 -0.11930 -0.00000
C  -0.691714  1.121767  0.000000  0.08630 -0.11930  0.00000
H   1.242824  2.046926 -0.000000  0.25100  0.40660  0.00000
H   1.242824 -2.046926  0.000000 -0.25100  0.40660  0.00000
H  -1.242824 -2.046926 -0.000000  0.25100  0.40660  0.00000
H  -1.242824  2.046926  0.000000 -0.25100  0.40660 -0.00000
10
 23. Vibration mode, 3245.44 cm-1, Ag
N   1.395248 -0.000000  0.000000  0.00200 -0.00000 -0.00000
C   0.691714  1.121767  0.000000 -0.08660 -0.12410  0.00000
C   0.691714 -1.121767  0.000000 -0.08660  0.12410  0.00000
N  -1.395248  0.000000  0.000000 -0.00200 -0.00000  0.00000
C  -0.691714 -1.121767  0.000000  0.08660  0.12410 -0.00000
C  -0.691714  1.121767  0.000000  0.08660 -0.12410  0.00000
H   1.242824  2.046926 -0.000000  0.25070  0.40530 -0.00000
H   1.242824 -2.046926  0.000000  0.25070 -0.40530  0.00000
H  -1.242824 -2.046926 -0.000000 -0.25070 -0.40530  0.00000
H  -1.242824  2.046926  0.000000 -0.25070  0.40530  0.00000
